*LTspice
*
*BCR421UW6
*10mA-350mA, Adjustable, SOT26
*AE01003421
*
*netlist
.include BCR421UW6.cir
*
*params
.param EN=3.3
.step param VSOURCE 12 40 0.2
.STEP param REXT list 470 820 10000Meg
*
*transient response
.op
.backanno
