* DIODES INCORPORATED AND ITS AFFILIATED COMPANIES AND SUBSIDIARIES (COLLECTIVELY, "DIODES") 
* PROVIDE THESE SPICE MODELS AND DATA (COLLECTIVELY, THE "SM DATA") "AS IS" AND WITHOUT ANY 
* REPRESENTATIONS OR WARRANTIES, EXPRESS OR IMPLIED, INCLUDING ANY WARRANTY OF MERCHANTABILITY 
* OR FITNESS FOR A PARTICULAR PURPOSE, ANY WARRANTY ARISING FROM COURSE OF DEALING OR COURSE OF 
* PERFORMANCE, OR ANY WARRANTY THAT ACCESS TO OR OPERATION OF THE SM DATA WILL BE UNINTERRUPTED, 
* OR THAT THE SM DATA OR ANY SIMULATION USING THE SM DATA WILL BE ERROR FREE. TO THE MAXIMUM 
* EXTENT PERMITTED BY LAW, IN NO EVENT WILL DIODES BE LIABLE FOR ANY DIRECT OR INDIRECT, 
* SPECIAL, INCIDENTAL, PUNITIVE OR CONSEQUENTIAL DAMAGES ARISING OUT OF OR IN CONNECTION WITH 
* THE PRODUCTION OR USE OF SM DATA, HOWEVER CAUSED AND UNDER WHATEVER CAUSE OF ACTION OR THEORY 
* OF LIABILITY BROUGHT (INCLUDING, WITHOUT LIMITATION, UNDER ANY CONTRACT, NEGLIGENCE OR OTHER 
* TORT THEORY OF LIABILITY), EVEN IF DIODES HAS BEEN ADVISED OF THE POSSIBILITY OF SUCH DAMAGES, 
* AND DIODES' TOTAL LIABILITY (WHETHER IN CONTRACT, TORT OR OTHERWISE) WITH REGARD TO THE SM 
* DATA WILL NOT, IN THE AGGREGATE, EXCEED ANY SUMS PAID BY YOU TO DIODES FOR THE SM DATA.



*DIODES_INC_SPICE_MODEL
*ORIGIN=DZSL_DPG_SU
*SIMULATOR=SIMETRIX
*DATE=23/07/2015
*VERSION=1

*PIN ORDER 1:EN 2:OUT 3:OUT 4:GND 5:OUT 6:Rext

.SUBCKT BCR421UW6 1 2 3 4 5 6 
Q1 5 8 6 BCRNPN
R1 1 8 1.5K TC1=0.2m
R2 6 4 95 TC1=2m
Rshort23 2 3 10u
Rshort35 3 5 10u
D1 8 9 BCRdiode
D2 9 4 BCRdiode
.MODEL BCRNPN NPN IS=300e-11 NF=1.2 ISE=30e-15 NE=1.2 BF=350
+ VAF=10 IKF=300m ISC=2e-13 NC=1.2 BR=15 NR=1 RE=0.01
+ RB=0.33 RC=0.01 CJE=60e-12 VJE=0.55 MJE=0.36 CJC=15e-12 VJC=0.5
+ MJC=0.35 TF=1e-9 TR=4e-9  QUASIMOD=1 RCO=1 GAMMA=1.3e-9 NK=.6
+ XTB=1.4 TRE1=0.004 TRB1=0.003 TRC1=0.004
.model BCRdiode D(IS=10f RS=.01 N=1.05 IKF=1m CJO=.5p M=0.3 VJ=0.7
+ BV=3 XTI=10)
.ENDS

.SIMULATOR DEFAULT